3

Si 0.932448300796 0.150886635222 44.73468522
Si 1.42624179106 1.24007130761 65.0211052459
Si 0.489303238261 1.86950475679 6.97884818992
3

Si 0.908047895757 0.67466430077 41.4780725459
Si 1.7287957602 0.255576763718 39.4653882468
Si 1.04143473352 1.75411628641 47.2196174791
3

Si 0.480669613466 0.157667431777 46.1988794614
Si 0.194257207676 0.582685616741 6.47746093178
Si 0.299556811814 1.1686093244 18.743607917
3

Si 1.29396696329 0.422741106775 92.7165518723
Si 1.46018986945 0.591633806844 34.2830683143
Si 0.927992793205 1.994824617 30.3755057706
3

Si 0.58623569146 0.692620490803 35.1907272371
Si 1.651058563 1.00229021224 91.2279880738
Si 1.37769975298 0.490856426536 80.4659436825
3

Si 1.42471417337 1.99218675211 12.1456677006
Si 1.39198470467 1.01385749915 0.229531017405
Si 1.46481975358 0.514227419898 83.6772205594
3

Si 0.995031999233 1.69970068928 69.8755731306
Si 0.104791417536 0.460727878109 87.6799897072
Si 0.69916750892 0.711045599047 76.7015575559
3

Si 0.0858150036131 1.48440748106 95.2121606014
Si 0.259815502594 0.0556746978216 96.5365697432
Si 0.897777543722 0.992732940384 78.035977877
3

Si 1.43733262416 0.64959857079 6.51054795805
Si 1.55332858687 1.00915233948 39.1681073557
Si 0.216117168493 0.469947544094 43.5325432221
3

Si 0.703712835094 1.1519523116 13.4400137657
Si 0.786495743474 1.50520637462 54.2861360236
Si 1.44946080823 1.35821049782 84.4264165979
